fakelig
  ATLAS   

 60 47  0  0  0  0  0  0  0  0  1 V2000
   14.3206   11.9996    3.2729 N   0  0  0  0  0  0  0  0  0  0  0  0
   14.0237   11.1737    2.7763 H   0  0  0  0  0  0  0  0  0  0  0  0
   12.0603   11.9207    2.2890 N   0  0  0  0  0  0  0  0  0  0  0  0
   12.3446   11.0228    1.9271 H   0  0  0  0  0  0  0  0  0  0  0  0
    9.5401   14.6597    7.4668 N   0  0  0  0  0  0  0  0  0  0  0  0
    9.2829   15.6089    7.6931 H   0  0  0  0  0  0  0  0  0  0  0  0
   10.9923   10.7591    1.6888 N   0  0  0  0  0  0  0  0  0  0  0  0
   10.3240   10.1159    1.2917 H   0  0  0  0  0  0  0  0  0  0  0  0
    8.6396   12.6123    7.4509 N   0  0  0  0  0  0  0  0  0  0  0  0
    8.0669   12.3520    8.1981 H   0  0  0  0  0  0  0  0  0  0  0  0
    6.6157   11.2377    6.4382 N   0  0  0  0  0  0  0  0  0  0  0  0
    6.7725   11.5142    7.3984 H   0  0  0  0  0  0  0  0  0  0  0  0
   11.2894   13.5672    6.7266 N   0  0  0  0  0  0  0  0  0  0  0  0
   11.9012   13.4205    7.5200 H   0  0  0  0  0  0  0  0  0  0  0  0
   15.9877   12.3905    1.8269 O   0  0  0  0  0  0  0  0  0  0  0  0
    8.9097   12.6791    6.6581 O   0  0  0  0  0  0  0  0  0  0  0  0
   19.3866   19.1961    6.2369 O   0  0  0  0  0  0  0  0  0  0  0  0
    7.6334   15.5381    2.3960 O   0  0  0  0  0  0  0  0  0  0  0  0
    9.6968   14.8541    7.5527 O   0  0  0  0  0  0  0  0  0  0  0  0
    9.1480   14.5486    3.2836 O   0  0  0  0  0  0  0  0  0  0  0  0
    8.2682   13.4711    5.5278 C   0  0  0  0  0  0  0  0  0  0  0  0
    8.7821   13.6045    6.7830 C   0  0  0  0  0  0  0  0  0  0  0  0
   10.1671   13.8931    6.6450 C   0  0  0  0  0  0  0  0  0  0  0  0
   10.4939   13.9373    5.3467 C   0  0  0  0  0  0  0  0  0  0  0  0
    9.3337   13.6793    4.6883 C   0  0  0  0  0  0  0  0  0  0  0  0
   14.0455   14.3627    4.3820 C   0  0  0  0  0  0  0  0  0  0  0  0
   12.6920   14.2240    4.5379 C   0  0  0  0  0  0  0  0  0  0  0  0
   12.2564   13.0811    3.9013 C   0  0  0  0  0  0  0  0  0  0  0  0
   13.3530   12.5306    3.3669 C   0  0  0  0  0  0  0  0  0  0  0  0
   14.4595   13.2903    3.6406 C   0  0  0  0  0  0  0  0  0  0  0  0
   11.0661   11.7238    2.0678 C   0  0  0  0  0  0  0  0  0  0  0  0
    9.5568   11.5209    1.8291 C   0  0  0  0  0  0  0  0  0  0  0  0
    8.7395   12.7688    2.1895 C   0  0  0  0  0  0  0  0  0  0  0  0
    9.1297   13.2779    3.5828 C   0  0  0  0  0  0  0  0  0  0  0  0
   10.5999   13.6212    3.6486 C   0  0  0  0  0  0  0  0  0  0  0  0
   11.4476   12.8311    2.9570 C   0  0  0  0  0  0  0  0  0  0  0  0
   12.3232   13.2626    3.8997 C   0  0  0  0  0  0  0  0  0  0  0  0
   12.1326   13.8419    5.3108 C   0  0  0  0  0  0  0  0  0  0  0  0
   10.6289   14.1478    5.4494 C   0  0  0  0  0  0  0  0  0  0  0  0
   10.0513   13.8451    4.0914 C   0  0  0  0  0  0  0  0  0  0  0  0
   11.0004   13.3320    3.3022 C   0  0  0  0  0  0  0  0  0  0  0  0
    8.0904   13.3214    4.8577 C   0  0  0  0  0  0  0  0  0  0  0  0
    7.1763   12.3205    4.7109 C   0  0  0  0  0  0  0  0  0  0  0  0
    7.2005   11.5433    5.9021 C   0  0  0  0  0  0  0  0  0  0  0  0
    8.1060   12.0489    6.7497 C   0  0  0  0  0  0  0  0  0  0  0  0
    8.6274   13.1235    6.1046 C   0  0  0  0  0  0  0  0  0  0  0  0
    5.8401   11.2343    4.5185 C   0  0  0  0  0  0  0  0  0  0  0  0
    6.7558   11.9245    5.3832 C   0  0  0  0  0  0  0  0  0  0  0  0
    6.9280   10.6049    6.1761 C   0  0  0  0  0  0  0  0  0  0  0  0
    5.6134   10.1843    5.4722 C   0  0  0  0  0  0  0  0  0  0  0  0
    8.1760   10.5107   -0.0573 C   0  0  0  0  0  0  0  0  0  0  0  0
    8.9390   11.5599   -0.4958 C   0  0  0  0  0  0  0  0  0  0  0  0
    9.8218   11.9468    0.4900 C   0  0  0  0  0  0  0  0  0  0  0  0
    9.5910   11.1252    1.5191 C   0  0  0  0  0  0  0  0  0  0  0  0
    8.5874   10.2438    1.2190 C   0  0  0  0  0  0  0  0  0  0  0  0
   15.9330   14.7036    3.7250 C   0  0  0  0  0  0  0  0  0  0  0  0
   14.8547   15.0661    4.4878 C   0  0  0  0  0  0  0  0  0  0  0  0
   15.2609   15.8727    5.5294 C   0  0  0  0  0  0  0  0  0  0  0  0
   16.5858   15.9943    5.3899 C   0  0  0  0  0  0  0  0  0  0  0  0
   17.0253   15.2947    4.2976 C   0  0  0  0  0  0  0  0  0  0  0  0
  1  2  1  0  0  0  0
  3  4  1  0  0  0  0
  5  6  1  0  0  0  0
  7  8  1  0  0  0  0
  9 10  1  0  0  0  0
 11 12  1  0  0  0  0
 13 14  1  0  0  0  0
 21 22  1  0  0  0  0
 22 23  1  0  0  0  0
 23 24  1  0  0  0  0
 24 25  1  0  0  0  0
 25 21  1  0  0  0  0
 26 27  1  0  0  0  0
 27 28  1  0  0  0  0
 28 29  1  0  0  0  0
 29 30  1  0  0  0  0
 30 26  1  0  0  0  0
 31 32  1  0  0  0  0
 32 33  1  0  0  0  0
 33 34  1  0  0  0  0
 34 35  1  0  0  0  0
 35 36  1  0  0  0  0
 36 31  1  0  0  0  0
 37 38  1  0  0  0  0
 38 39  1  0  0  0  0
 39 40  1  0  0  0  0
 40 41  1  0  0  0  0
 41 37  1  0  0  0  0
 42 43  1  0  0  0  0
 43 44  1  0  0  0  0
 44 45  1  0  0  0  0
 45 46  1  0  0  0  0
 46 42  1  0  0  0  0
 47 48  1  0  0  0  0
 48 49  1  0  0  0  0
 49 50  1  0  0  0  0
 50 47  1  0  0  0  0
 51 52  1  0  0  0  0
 52 53  1  0  0  0  0
 53 54  1  0  0  0  0
 54 55  1  0  0  0  0
 55 51  1  0  0  0  0
 56 57  1  0  0  0  0
 57 58  1  0  0  0  0
 58 59  1  0  0  0  0
 59 60  1  0  0  0  0
 60 56  1  0  0  0  0
M  END
$$$$
