RING
  ATLAS   

  5  5  0  0  0  0  0  0  0  0  1 V2000
    8.2682   13.4711    5.5278 C   0  0  0  0  0  0  0  0  0  0  0  0
    8.7821   13.6045    6.7830 C   0  0  0  0  0  0  0  0  0  0  0  0
   10.1671   13.8931    6.6450 C   0  0  0  0  0  0  0  0  0  0  0  0
   10.4939   13.9373    5.3467 C   0  0  0  0  0  0  0  0  0  0  0  0
    9.3337   13.6793    4.6883 C   0  0  0  0  0  0  0  0  0  0  0  0
  1  2  1  0  0  0  0
  2  3  1  0  0  0  0
  3  4  1  0  0  0  0
  4  5  1  0  0  0  0
  5  1  1  0  0  0  0
M  END
> <CLUSTER_SIZE>
7750

$$$$
RING
  ATLAS   

  5  5  0  0  0  0  0  0  0  0  1 V2000
   14.0455   14.3627    4.3820 C   0  0  0  0  0  0  0  0  0  0  0  0
   12.6920   14.2240    4.5379 C   0  0  0  0  0  0  0  0  0  0  0  0
   12.2564   13.0811    3.9013 C   0  0  0  0  0  0  0  0  0  0  0  0
   13.3530   12.5306    3.3669 C   0  0  0  0  0  0  0  0  0  0  0  0
   14.4595   13.2903    3.6406 C   0  0  0  0  0  0  0  0  0  0  0  0
  1  2  1  0  0  0  0
  2  3  1  0  0  0  0
  3  4  1  0  0  0  0
  4  5  1  0  0  0  0
  5  1  1  0  0  0  0
M  END
> <CLUSTER_SIZE>
3517

$$$$
RING
  ATLAS   

  6  6  0  0  0  0  0  0  0  0  1 V2000
   11.0661   11.7238    2.0678 C   0  0  0  0  0  0  0  0  0  0  0  0
    9.5568   11.5209    1.8291 C   0  0  0  0  0  0  0  0  0  0  0  0
    8.7395   12.7688    2.1895 C   0  0  0  0  0  0  0  0  0  0  0  0
    9.1297   13.2779    3.5828 C   0  0  0  0  0  0  0  0  0  0  0  0
   10.5999   13.6212    3.6486 C   0  0  0  0  0  0  0  0  0  0  0  0
   11.4476   12.8311    2.9570 C   0  0  0  0  0  0  0  0  0  0  0  0
  1  2  1  0  0  0  0
  2  3  1  0  0  0  0
  3  4  1  0  0  0  0
  4  5  1  0  0  0  0
  5  6  1  0  0  0  0
  6  1  1  0  0  0  0
M  END
> <CLUSTER_SIZE>
1851

$$$$
RING
  ATLAS   

  5  5  0  0  0  0  0  0  0  0  1 V2000
   12.3232   13.2626    3.8997 C   0  0  0  0  0  0  0  0  0  0  0  0
   12.1326   13.8419    5.3108 C   0  0  0  0  0  0  0  0  0  0  0  0
   10.6289   14.1478    5.4494 C   0  0  0  0  0  0  0  0  0  0  0  0
   10.0513   13.8451    4.0914 C   0  0  0  0  0  0  0  0  0  0  0  0
   11.0004   13.3320    3.3022 C   0  0  0  0  0  0  0  0  0  0  0  0
  1  2  1  0  0  0  0
  2  3  1  0  0  0  0
  3  4  1  0  0  0  0
  4  5  1  0  0  0  0
  5  1  1  0  0  0  0
M  END
> <CLUSTER_SIZE>
1222

$$$$
RING
  ATLAS   

  5  5  0  0  0  0  0  0  0  0  1 V2000
    8.0904   13.3214    4.8577 C   0  0  0  0  0  0  0  0  0  0  0  0
    7.1763   12.3205    4.7109 C   0  0  0  0  0  0  0  0  0  0  0  0
    7.2005   11.5433    5.9021 C   0  0  0  0  0  0  0  0  0  0  0  0
    8.1060   12.0489    6.7497 C   0  0  0  0  0  0  0  0  0  0  0  0
    8.6274   13.1235    6.1046 C   0  0  0  0  0  0  0  0  0  0  0  0
  1  2  1  0  0  0  0
  2  3  1  0  0  0  0
  3  4  1  0  0  0  0
  4  5  1  0  0  0  0
  5  1  1  0  0  0  0
M  END
> <CLUSTER_SIZE>
321

$$$$
RING
  ATLAS   

  4  4  0  0  0  0  0  0  0  0  1 V2000
    5.8401   11.2343    4.5185 C   0  0  0  0  0  0  0  0  0  0  0  0
    6.7558   11.9245    5.3832 C   0  0  0  0  0  0  0  0  0  0  0  0
    6.9280   10.6049    6.1761 C   0  0  0  0  0  0  0  0  0  0  0  0
    5.6134   10.1843    5.4722 C   0  0  0  0  0  0  0  0  0  0  0  0
  1  2  1  0  0  0  0
  2  3  1  0  0  0  0
  3  4  1  0  0  0  0
  4  1  1  0  0  0  0
M  END
> <CLUSTER_SIZE>
176

$$$$
RING
  ATLAS   

  5  5  0  0  0  0  0  0  0  0  1 V2000
    8.1760   10.5107   -0.0573 C   0  0  0  0  0  0  0  0  0  0  0  0
    8.9390   11.5599   -0.4958 C   0  0  0  0  0  0  0  0  0  0  0  0
    9.8218   11.9468    0.4900 C   0  0  0  0  0  0  0  0  0  0  0  0
    9.5910   11.1252    1.5191 C   0  0  0  0  0  0  0  0  0  0  0  0
    8.5874   10.2438    1.2190 C   0  0  0  0  0  0  0  0  0  0  0  0
  1  2  1  0  0  0  0
  2  3  1  0  0  0  0
  3  4  1  0  0  0  0
  4  5  1  0  0  0  0
  5  1  1  0  0  0  0
M  END
> <CLUSTER_SIZE>
139

$$$$
RING
  ATLAS   

  5  5  0  0  0  0  0  0  0  0  1 V2000
   15.9330   14.7036    3.7250 C   0  0  0  0  0  0  0  0  0  0  0  0
   14.8547   15.0661    4.4878 C   0  0  0  0  0  0  0  0  0  0  0  0
   15.2609   15.8727    5.5294 C   0  0  0  0  0  0  0  0  0  0  0  0
   16.5858   15.9943    5.3899 C   0  0  0  0  0  0  0  0  0  0  0  0
   17.0253   15.2947    4.2976 C   0  0  0  0  0  0  0  0  0  0  0  0
  1  2  1  0  0  0  0
  2  3  1  0  0  0  0
  3  4  1  0  0  0  0
  4  5  1  0  0  0  0
  5  1  1  0  0  0  0
M  END
> <CLUSTER_SIZE>
55

$$$$
