fakelig
  ATLAS   

 70 55  0  0  0  0  0  0  0  0  1 V2000
   -0.4456    5.6184    9.5100 N   0  0  0  0  0  0  0  0  0  0  0  0
   -1.3215    5.9253    9.9071 H   0  0  0  0  0  0  0  0  0  0  0  0
    8.0849    7.5265    6.2338 N   0  0  0  0  0  0  0  0  0  0  0  0
    8.9750    7.1271    5.9789 H   0  0  0  0  0  0  0  0  0  0  0  0
   -0.0741    7.1567    5.7520 N   0  0  0  0  0  0  0  0  0  0  0  0
   -0.7841    6.5270    6.0894 H   0  0  0  0  0  0  0  0  0  0  0  0
    6.7919    5.5083    8.0842 N   0  0  0  0  0  0  0  0  0  0  0  0
    7.3662    4.9000    8.6487 H   0  0  0  0  0  0  0  0  0  0  0  0
   -0.2938    8.1269    2.8171 N   0  0  0  0  0  0  0  0  0  0  0  0
   -0.6181    7.4624    2.1789 H   0  0  0  0  0  0  0  0  0  0  0  0
    1.6014    6.3434    2.7751 N   0  0  0  0  0  0  0  0  0  0  0  0
    1.2996    6.5585    1.8734 H   0  0  0  0  0  0  0  0  0  0  0  0
    3.6763    7.0067   12.9355 N   0  0  0  0  0  0  0  0  0  0  0  0
    4.1275    7.6727   13.5429 H   0  0  0  0  0  0  0  0  0  0  0  0
    0.5403    5.3933    7.5146 N   0  0  0  0  0  0  0  0  0  0  0  0
   -0.1254    5.6308    6.7945 H   0  0  0  0  0  0  0  0  0  0  0  0
    2.2610    4.9960    9.3976 N   0  0  0  0  0  0  0  0  0  0  0  0
    2.9902    4.8133   10.0735 H   0  0  0  0  0  0  0  0  0  0  0  0
    4.2003    6.2682    9.3973 N   0  0  0  0  0  0  0  0  0  0  0  0
    4.8545    5.5669    9.7097 H   0  0  0  0  0  0  0  0  0  0  0  0
    0.1425    7.5975    8.6013 O   0  0  0  0  0  0  0  0  0  0  0  0
    7.6130    6.0722    7.8893 O   0  0  0  0  0  0  0  0  0  0  0  0
    3.6520    5.1687    9.0634 O   0  0  0  0  0  0  0  0  0  0  0  0
    3.0335    6.4638   10.8588 O   0  0  0  0  0  0  0  0  0  0  0  0
    3.9307    6.7811   12.8318 O   0  0  0  0  0  0  0  0  0  0  0  0
    7.8135    8.7503    5.4273 C   0  0  0  0  0  0  0  0  0  0  0  0
    7.0453    9.7706    4.9506 C   0  0  0  0  0  0  0  0  0  0  0  0
    5.8576    9.8093    5.7317 C   0  0  0  0  0  0  0  0  0  0  0  0
    5.8965    8.8445    6.6600 C   0  0  0  0  0  0  0  0  0  0  0  0
    7.0841    8.2176    6.4592 C   0  0  0  0  0  0  0  0  0  0  0  0
    1.2362    8.1602    4.5169 C   0  0  0  0  0  0  0  0  0  0  0  0
    1.2527    6.6612    4.8605 C   0  0  0  0  0  0  0  0  0  0  0  0
    0.7708    6.5597    6.3225 C   0  0  0  0  0  0  0  0  0  0  0  0
    0.4154    7.9712    6.7173 C   0  0  0  0  0  0  0  0  0  0  0  0
    0.7146    8.8028    5.7127 C   0  0  0  0  0  0  0  0  0  0  0  0
    1.6637    6.1541   10.2606 C   0  0  0  0  0  0  0  0  0  0  0  0
    1.5404    5.2876    9.2156 C   0  0  0  0  0  0  0  0  0  0  0  0
    2.7967    5.2451    8.5502 C   0  0  0  0  0  0  0  0  0  0  0  0
    3.6634    6.0598    9.1662 C   0  0  0  0  0  0  0  0  0  0  0  0
    2.9623    6.5935   10.1995 C   0  0  0  0  0  0  0  0  0  0  0  0
    5.8701   10.6371    5.8803 C   0  0  0  0  0  0  0  0  0  0  0  0
    5.0461   11.4222    5.1163 C   0  0  0  0  0  0  0  0  0  0  0  0
    4.9780   10.8718    3.8621 C   0  0  0  0  0  0  0  0  0  0  0  0
    5.7594    9.7451    3.8506 C   0  0  0  0  0  0  0  0  0  0  0  0
    6.3123    9.6052    5.0967 C   0  0  0  0  0  0  0  0  0  0  0  0
    2.2630    6.6897    7.0702 C   0  0  0  0  0  0  0  0  0  0  0  0
    0.9623    6.3469    6.8059 C   0  0  0  0  0  0  0  0  0  0  0  0
    0.5564    5.4465    7.7583 C   0  0  0  0  0  0  0  0  0  0  0  0
    1.6082    5.2252    8.6100 C   0  0  0  0  0  0  0  0  0  0  0  0
    2.6579    5.9960    8.1837 C   0  0  0  0  0  0  0  0  0  0  0  0
    4.1805    7.0792    8.5087 C   0  0  0  0  0  0  0  0  0  0  0  0
    3.7728    6.9841    9.8057 C   0  0  0  0  0  0  0  0  0  0  0  0
    2.6809    7.8778    9.9749 C   0  0  0  0  0  0  0  0  0  0  0  0
    2.4242    8.5023    8.8179 C   0  0  0  0  0  0  0  0  0  0  0  0
    3.3404    8.0069    7.9461 C   0  0  0  0  0  0  0  0  0  0  0  0
    2.2559    6.9469   10.0263 C   0  0  0  0  0  0  0  0  0  0  0  0
    3.3378    7.7745    9.9965 C   0  0  0  0  0  0  0  0  0  0  0  0
    3.8720    7.8210   11.3130 C   0  0  0  0  0  0  0  0  0  0  0  0
    3.1472    7.0413   12.1247 C   0  0  0  0  0  0  0  0  0  0  0  0
    2.1683    6.5337   11.3314 C   0  0  0  0  0  0  0  0  0  0  0  0
    1.2989    8.5158    5.0972 C   0  0  0  0  0  0  0  0  0  0  0  0
    2.2310    9.4069    4.6552 C   0  0  0  0  0  0  0  0  0  0  0  0
    2.6488    8.9789    3.3647 C   0  0  0  0  0  0  0  0  0  0  0  0
    1.9972    7.8584    3.0275 C   0  0  0  0  0  0  0  0  0  0  0  0
    1.1835    7.5990    4.0832 C   0  0  0  0  0  0  0  0  0  0  0  0
    5.7312    8.4881    6.5143 C   0  0  0  0  0  0  0  0  0  0  0  0
    5.0059    7.7895    7.4446 C   0  0  0  0  0  0  0  0  0  0  0  0
    5.8208    6.8288    7.9877 C   0  0  0  0  0  0  0  0  0  0  0  0
    7.0540    6.9340    7.3964 C   0  0  0  0  0  0  0  0  0  0  0  0
    6.9932    7.9562    6.4868 C   0  0  0  0  0  0  0  0  0  0  0  0
  1  2  1  0  0  0  0
  3  4  1  0  0  0  0
  5  6  1  0  0  0  0
  7  8  1  0  0  0  0
  9 10  1  0  0  0  0
 11 12  1  0  0  0  0
 13 14  1  0  0  0  0
 15 16  1  0  0  0  0
 17 18  1  0  0  0  0
 19 20  1  0  0  0  0
 26 27  1  0  0  0  0
 27 28  1  0  0  0  0
 28 29  1  0  0  0  0
 29 30  1  0  0  0  0
 30 26  1  0  0  0  0
 31 32  1  0  0  0  0
 32 33  1  0  0  0  0
 33 34  1  0  0  0  0
 34 35  1  0  0  0  0
 35 31  1  0  0  0  0
 36 37  1  0  0  0  0
 37 38  1  0  0  0  0
 38 39  1  0  0  0  0
 39 40  1  0  0  0  0
 40 36  1  0  0  0  0
 41 42  1  0  0  0  0
 42 43  1  0  0  0  0
 43 44  1  0  0  0  0
 44 45  1  0  0  0  0
 45 41  1  0  0  0  0
 46 47  1  0  0  0  0
 47 48  1  0  0  0  0
 48 49  1  0  0  0  0
 49 50  1  0  0  0  0
 50 46  1  0  0  0  0
 51 52  1  0  0  0  0
 52 53  1  0  0  0  0
 53 54  1  0  0  0  0
 54 55  1  0  0  0  0
 55 51  1  0  0  0  0
 56 57  1  0  0  0  0
 57 58  1  0  0  0  0
 58 59  1  0  0  0  0
 59 60  1  0  0  0  0
 60 56  1  0  0  0  0
 61 62  1  0  0  0  0
 62 63  1  0  0  0  0
 63 64  1  0  0  0  0
 64 65  1  0  0  0  0
 65 61  1  0  0  0  0
 66 67  1  0  0  0  0
 67 68  1  0  0  0  0
 68 69  1  0  0  0  0
 69 70  1  0  0  0  0
 70 66  1  0  0  0  0
M  END
$$$$
