RING
  ATLAS   

  5  5  0  0  0  0  0  0  0  0  1 V2000
    7.8135    8.7503    5.4273 C   0  0  0  0  0  0  0  0  0  0  0  0
    7.0453    9.7706    4.9506 C   0  0  0  0  0  0  0  0  0  0  0  0
    5.8576    9.8093    5.7317 C   0  0  0  0  0  0  0  0  0  0  0  0
    5.8965    8.8445    6.6600 C   0  0  0  0  0  0  0  0  0  0  0  0
    7.0841    8.2176    6.4592 C   0  0  0  0  0  0  0  0  0  0  0  0
  1  2  1  0  0  0  0
  2  3  1  0  0  0  0
  3  4  1  0  0  0  0
  4  5  1  0  0  0  0
  5  1  1  0  0  0  0
M  END
> <CLUSTER_SIZE>
7551

$$$$
RING
  ATLAS   

  5  5  0  0  0  0  0  0  0  0  1 V2000
    1.2362    8.1602    4.5169 C   0  0  0  0  0  0  0  0  0  0  0  0
    1.2527    6.6612    4.8605 C   0  0  0  0  0  0  0  0  0  0  0  0
    0.7708    6.5597    6.3225 C   0  0  0  0  0  0  0  0  0  0  0  0
    0.4154    7.9712    6.7173 C   0  0  0  0  0  0  0  0  0  0  0  0
    0.7146    8.8028    5.7127 C   0  0  0  0  0  0  0  0  0  0  0  0
  1  2  1  0  0  0  0
  2  3  1  0  0  0  0
  3  4  1  0  0  0  0
  4  5  1  0  0  0  0
  5  1  1  0  0  0  0
M  END
> <CLUSTER_SIZE>
4569

$$$$
RING
  ATLAS   

  5  5  0  0  0  0  0  0  0  0  1 V2000
    1.6637    6.1541   10.2606 C   0  0  0  0  0  0  0  0  0  0  0  0
    1.5404    5.2876    9.2156 C   0  0  0  0  0  0  0  0  0  0  0  0
    2.7967    5.2451    8.5502 C   0  0  0  0  0  0  0  0  0  0  0  0
    3.6634    6.0598    9.1662 C   0  0  0  0  0  0  0  0  0  0  0  0
    2.9623    6.5935   10.1995 C   0  0  0  0  0  0  0  0  0  0  0  0
  1  2  1  0  0  0  0
  2  3  1  0  0  0  0
  3  4  1  0  0  0  0
  4  5  1  0  0  0  0
  5  1  1  0  0  0  0
M  END
> <CLUSTER_SIZE>
2908

$$$$
RING
  ATLAS   

  5  5  0  0  0  0  0  0  0  0  1 V2000
    5.8701   10.6371    5.8803 C   0  0  0  0  0  0  0  0  0  0  0  0
    5.0461   11.4222    5.1163 C   0  0  0  0  0  0  0  0  0  0  0  0
    4.9780   10.8718    3.8621 C   0  0  0  0  0  0  0  0  0  0  0  0
    5.7594    9.7451    3.8506 C   0  0  0  0  0  0  0  0  0  0  0  0
    6.3123    9.6052    5.0967 C   0  0  0  0  0  0  0  0  0  0  0  0
  1  2  1  0  0  0  0
  2  3  1  0  0  0  0
  3  4  1  0  0  0  0
  4  5  1  0  0  0  0
  5  1  1  0  0  0  0
M  END
> <CLUSTER_SIZE>
750

$$$$
RING
  ATLAS   

  5  5  0  0  0  0  0  0  0  0  1 V2000
    2.2630    6.6897    7.0702 C   0  0  0  0  0  0  0  0  0  0  0  0
    0.9623    6.3469    6.8059 C   0  0  0  0  0  0  0  0  0  0  0  0
    0.5564    5.4465    7.7583 C   0  0  0  0  0  0  0  0  0  0  0  0
    1.6082    5.2252    8.6100 C   0  0  0  0  0  0  0  0  0  0  0  0
    2.6579    5.9960    8.1837 C   0  0  0  0  0  0  0  0  0  0  0  0
  1  2  1  0  0  0  0
  2  3  1  0  0  0  0
  3  4  1  0  0  0  0
  4  5  1  0  0  0  0
  5  1  1  0  0  0  0
M  END
> <CLUSTER_SIZE>
159

$$$$
RING
  ATLAS   

  5  5  0  0  0  0  0  0  0  0  1 V2000
    4.1805    7.0792    8.5087 C   0  0  0  0  0  0  0  0  0  0  0  0
    3.7728    6.9841    9.8057 C   0  0  0  0  0  0  0  0  0  0  0  0
    2.6809    7.8778    9.9749 C   0  0  0  0  0  0  0  0  0  0  0  0
    2.4242    8.5023    8.8179 C   0  0  0  0  0  0  0  0  0  0  0  0
    3.3404    8.0069    7.9461 C   0  0  0  0  0  0  0  0  0  0  0  0
  1  2  1  0  0  0  0
  2  3  1  0  0  0  0
  3  4  1  0  0  0  0
  4  5  1  0  0  0  0
  5  1  1  0  0  0  0
M  END
> <CLUSTER_SIZE>
73

$$$$
RING
  ATLAS   

  5  5  0  0  0  0  0  0  0  0  1 V2000
    2.2559    6.9469   10.0263 C   0  0  0  0  0  0  0  0  0  0  0  0
    3.3378    7.7745    9.9965 C   0  0  0  0  0  0  0  0  0  0  0  0
    3.8720    7.8210   11.3130 C   0  0  0  0  0  0  0  0  0  0  0  0
    3.1472    7.0413   12.1247 C   0  0  0  0  0  0  0  0  0  0  0  0
    2.1683    6.5337   11.3314 C   0  0  0  0  0  0  0  0  0  0  0  0
  1  2  1  0  0  0  0
  2  3  1  0  0  0  0
  3  4  1  0  0  0  0
  4  5  1  0  0  0  0
  5  1  1  0  0  0  0
M  END
> <CLUSTER_SIZE>
65

$$$$
RING
  ATLAS   

  5  5  0  0  0  0  0  0  0  0  1 V2000
    1.2989    8.5158    5.0972 C   0  0  0  0  0  0  0  0  0  0  0  0
    2.2310    9.4069    4.6552 C   0  0  0  0  0  0  0  0  0  0  0  0
    2.6488    8.9789    3.3647 C   0  0  0  0  0  0  0  0  0  0  0  0
    1.9972    7.8584    3.0275 C   0  0  0  0  0  0  0  0  0  0  0  0
    1.1835    7.5990    4.0832 C   0  0  0  0  0  0  0  0  0  0  0  0
  1  2  1  0  0  0  0
  2  3  1  0  0  0  0
  3  4  1  0  0  0  0
  4  5  1  0  0  0  0
  5  1  1  0  0  0  0
M  END
> <CLUSTER_SIZE>
56

$$$$
RING
  ATLAS   

  5  5  0  0  0  0  0  0  0  0  1 V2000
    5.7312    8.4881    6.5143 C   0  0  0  0  0  0  0  0  0  0  0  0
    5.0059    7.7895    7.4446 C   0  0  0  0  0  0  0  0  0  0  0  0
    5.8208    6.8288    7.9877 C   0  0  0  0  0  0  0  0  0  0  0  0
    7.0540    6.9340    7.3964 C   0  0  0  0  0  0  0  0  0  0  0  0
    6.9932    7.9562    6.4868 C   0  0  0  0  0  0  0  0  0  0  0  0
  1  2  1  0  0  0  0
  2  3  1  0  0  0  0
  3  4  1  0  0  0  0
  4  5  1  0  0  0  0
  5  1  1  0  0  0  0
M  END
> <CLUSTER_SIZE>
52

$$$$
