fakelig
  ATLAS   

 60 51  0  0  0  0  0  0  0  0  1 V2000
   43.9770   15.3575    1.5009 N   0  0  0  0  0  0  0  0  0  0  0  0
   43.1465   15.2933    0.9324 H   0  0  0  0  0  0  0  0  0  0  0  0
   47.1959   13.0301    2.7689 N   0  0  0  0  0  0  0  0  0  0  0  0
   48.0510   12.5899    2.9058 H   0  0  0  0  0  0  0  0  0  0  0  0
   47.1313   10.9785    1.4921 N   0  0  0  0  0  0  0  0  0  0  0  0
   48.1090   11.0905    1.7136 H   0  0  0  0  0  0  0  0  0  0  0  0
   44.4745   16.8594    4.9921 O   0  0  0  0  0  0  0  0  0  0  0  0
   46.4409   17.1092    5.8285 O   0  0  0  0  0  0  0  0  0  0  0  0
   45.3791   14.8929    6.1606 O   0  0  0  0  0  0  0  0  0  0  0  0
   42.7127    8.0002   -1.1850 O   0  0  0  0  0  0  0  0  0  0  0  0
   43.6380   17.5094    1.7739 O   0  0  0  0  0  0  0  0  0  0  0  0
   43.4848   15.0132    2.1142 O   0  0  0  0  0  0  0  0  0  0  0  0
   45.3068   11.1925    0.5389 C   0  0  0  0  0  0  0  0  0  0  0  0
   46.4295   11.2729    1.5877 C   0  0  0  0  0  0  0  0  0  0  0  0
   46.2148   12.6052    2.3343 C   0  0  0  0  0  0  0  0  0  0  0  0
   45.0160   13.2363    1.6707 C   0  0  0  0  0  0  0  0  0  0  0  0
   44.5578   12.4258    0.7099 C   0  0  0  0  0  0  0  0  0  0  0  0
   46.8121   14.6687    3.6976 C   0  0  0  0  0  0  0  0  0  0  0  0
   45.9015   14.1571    2.8119 C   0  0  0  0  0  0  0  0  0  0  0  0
   44.9854   15.1247    2.4557 C   0  0  0  0  0  0  0  0  0  0  0  0
   45.3521   16.2230    3.1249 C   0  0  0  0  0  0  0  0  0  0  0  0
   46.4616   15.9751    3.8877 C   0  0  0  0  0  0  0  0  0  0  0  0
   45.6312    9.8000   -0.9458 C   0  0  0  0  0  0  0  0  0  0  0  0
   44.7351   10.2894    0.2063 C   0  0  0  0  0  0  0  0  0  0  0  0
   45.2968   11.5556    0.8644 C   0  0  0  0  0  0  0  0  0  0  0  0
   46.7551   11.3150    1.2711 C   0  0  0  0  0  0  0  0  0  0  0  0
   47.6079   10.9758    0.0686 C   0  0  0  0  0  0  0  0  0  0  0  0
   47.0335   10.2395   -0.9060 C   0  0  0  0  0  0  0  0  0  0  0  0
   44.6688   13.5679    0.3272 C   0  0  0  0  0  0  0  0  0  0  0  0
   45.0402   13.3279    1.6232 C   0  0  0  0  0  0  0  0  0  0  0  0
   44.8998   14.4746    2.3782 C   0  0  0  0  0  0  0  0  0  0  0  0
   44.4443   15.4043    1.5334 C   0  0  0  0  0  0  0  0  0  0  0  0
   44.2959   14.8818    0.2750 C   0  0  0  0  0  0  0  0  0  0  0  0
   48.2317   10.9651   -0.1091 C   0  0  0  0  0  0  0  0  0  0  0  0
   47.1552   11.3044    0.7280 C   0  0  0  0  0  0  0  0  0  0  0  0
   46.8472   10.4245    1.7814 C   0  0  0  0  0  0  0  0  0  0  0  0
   47.5853    9.2446    1.9907 C   0  0  0  0  0  0  0  0  0  0  0  0
   48.6462    8.9757    1.1098 C   0  0  0  0  0  0  0  0  0  0  0  0
   48.9572    9.8214    0.0810 C   0  0  0  0  0  0  0  0  0  0  0  0
   45.2298    9.7811   -0.0203 C   0  0  0  0  0  0  0  0  0  0  0  0
   45.5284   10.7811   -1.1531 C   0  0  0  0  0  0  0  0  0  0  0  0
   44.3211   10.9540   -2.0831 C   0  0  0  0  0  0  0  0  0  0  0  0
   43.8439    9.5810   -2.5722 C   0  0  0  0  0  0  0  0  0  0  0  0
   43.4354    8.7028   -1.4131 C   0  0  0  0  0  0  0  0  0  0  0  0
   44.1449    8.8209   -0.2707 C   0  0  0  0  0  0  0  0  0  0  0  0
   42.8125    8.0667   -2.0571 C   0  0  0  0  0  0  0  0  0  0  0  0
   41.8765    8.4340   -2.9768 C   0  0  0  0  0  0  0  0  0  0  0  0
   42.0382    9.8272   -3.2118 C   0  0  0  0  0  0  0  0  0  0  0  0
   43.0379   10.3001   -2.4552 C   0  0  0  0  0  0  0  0  0  0  0  0
   43.4896    9.2227   -1.7629 C   0  0  0  0  0  0  0  0  0  0  0  0
   47.5246   15.9793    3.9566 C   0  0  0  0  0  0  0  0  0  0  0  0
   47.4122   17.0745    4.7701 C   0  0  0  0  0  0  0  0  0  0  0  0
   46.3007   16.9571    5.5770 C   0  0  0  0  0  0  0  0  0  0  0  0
   45.7469   15.7856    5.2443 C   0  0  0  0  0  0  0  0  0  0  0  0
   46.4718   15.1632    4.2636 C   0  0  0  0  0  0  0  0  0  0  0  0
   44.4260   16.3464   -1.4661 C   0  0  0  0  0  0  0  0  0  0  0  0
   43.8559   15.4800   -0.5818 C   0  0  0  0  0  0  0  0  0  0  0  0
   43.8988   16.0911    0.7015 C   0  0  0  0  0  0  0  0  0  0  0  0
   44.4698   17.2990    0.6063 C   0  0  0  0  0  0  0  0  0  0  0  0
   44.7990   17.4268   -0.7062 C   0  0  0  0  0  0  0  0  0  0  0  0
  1  2  1  0  0  0  0
  3  4  1  0  0  0  0
  5  6  1  0  0  0  0
 13 14  1  0  0  0  0
 14 15  1  0  0  0  0
 15 16  1  0  0  0  0
 16 17  1  0  0  0  0
 17 13  1  0  0  0  0
 18 19  1  0  0  0  0
 19 20  1  0  0  0  0
 20 21  1  0  0  0  0
 21 22  1  0  0  0  0
 22 18  1  0  0  0  0
 23 24  1  0  0  0  0
 24 25  1  0  0  0  0
 25 26  1  0  0  0  0
 26 27  1  0  0  0  0
 27 28  1  0  0  0  0
 28 23  1  0  0  0  0
 29 30  1  0  0  0  0
 30 31  1  0  0  0  0
 31 32  1  0  0  0  0
 32 33  1  0  0  0  0
 33 29  1  0  0  0  0
 34 35  1  0  0  0  0
 35 36  1  0  0  0  0
 36 37  1  0  0  0  0
 37 38  1  0  0  0  0
 38 39  1  0  0  0  0
 39 34  1  0  0  0  0
 40 41  1  0  0  0  0
 41 42  1  0  0  0  0
 42 43  1  0  0  0  0
 43 44  1  0  0  0  0
 44 45  1  0  0  0  0
 45 40  1  0  0  0  0
 46 47  1  0  0  0  0
 47 48  1  0  0  0  0
 48 49  1  0  0  0  0
 49 50  1  0  0  0  0
 50 46  1  0  0  0  0
 51 52  1  0  0  0  0
 52 53  1  0  0  0  0
 53 54  1  0  0  0  0
 54 55  1  0  0  0  0
 55 51  1  0  0  0  0
 56 57  1  0  0  0  0
 57 58  1  0  0  0  0
 58 59  1  0  0  0  0
 59 60  1  0  0  0  0
 60 56  1  0  0  0  0
M  END
$$$$
