RING
  ATLAS   

  5  5  0  0  0  0  0  0  0  0  1 V2000
   45.3068   11.1925    0.5389 C   0  0  0  0  0  0  0  0  0  0  0  0
   46.4295   11.2729    1.5877 C   0  0  0  0  0  0  0  0  0  0  0  0
   46.2148   12.6052    2.3343 C   0  0  0  0  0  0  0  0  0  0  0  0
   45.0160   13.2363    1.6707 C   0  0  0  0  0  0  0  0  0  0  0  0
   44.5578   12.4258    0.7099 C   0  0  0  0  0  0  0  0  0  0  0  0
  1  2  1  0  0  0  0
  2  3  1  0  0  0  0
  3  4  1  0  0  0  0
  4  5  1  0  0  0  0
  5  1  1  0  0  0  0
M  END
> <CLUSTER_SIZE>
10938

$$$$
RING
  ATLAS   

  5  5  0  0  0  0  0  0  0  0  1 V2000
   46.8121   14.6687    3.6976 C   0  0  0  0  0  0  0  0  0  0  0  0
   45.9015   14.1571    2.8119 C   0  0  0  0  0  0  0  0  0  0  0  0
   44.9854   15.1247    2.4557 C   0  0  0  0  0  0  0  0  0  0  0  0
   45.3521   16.2230    3.1249 C   0  0  0  0  0  0  0  0  0  0  0  0
   46.4616   15.9751    3.8877 C   0  0  0  0  0  0  0  0  0  0  0  0
  1  2  1  0  0  0  0
  2  3  1  0  0  0  0
  3  4  1  0  0  0  0
  4  5  1  0  0  0  0
  5  1  1  0  0  0  0
M  END
> <CLUSTER_SIZE>
3549

$$$$
RING
  ATLAS   

  6  6  0  0  0  0  0  0  0  0  1 V2000
   45.6312    9.8000   -0.9458 C   0  0  0  0  0  0  0  0  0  0  0  0
   44.7351   10.2894    0.2063 C   0  0  0  0  0  0  0  0  0  0  0  0
   45.2968   11.5556    0.8644 C   0  0  0  0  0  0  0  0  0  0  0  0
   46.7551   11.3150    1.2711 C   0  0  0  0  0  0  0  0  0  0  0  0
   47.6079   10.9758    0.0686 C   0  0  0  0  0  0  0  0  0  0  0  0
   47.0335   10.2395   -0.9060 C   0  0  0  0  0  0  0  0  0  0  0  0
  1  2  1  0  0  0  0
  2  3  1  0  0  0  0
  3  4  1  0  0  0  0
  4  5  1  0  0  0  0
  5  6  1  0  0  0  0
  6  1  1  0  0  0  0
M  END
> <CLUSTER_SIZE>
916

$$$$
RING
  ATLAS   

  5  5  0  0  0  0  0  0  0  0  1 V2000
   44.6688   13.5679    0.3272 C   0  0  0  0  0  0  0  0  0  0  0  0
   45.0402   13.3279    1.6232 C   0  0  0  0  0  0  0  0  0  0  0  0
   44.8998   14.4746    2.3782 C   0  0  0  0  0  0  0  0  0  0  0  0
   44.4443   15.4043    1.5334 C   0  0  0  0  0  0  0  0  0  0  0  0
   44.2959   14.8818    0.2750 C   0  0  0  0  0  0  0  0  0  0  0  0
  1  2  1  0  0  0  0
  2  3  1  0  0  0  0
  3  4  1  0  0  0  0
  4  5  1  0  0  0  0
  5  1  1  0  0  0  0
M  END
> <CLUSTER_SIZE>
583

$$$$
RING
  ATLAS   

  6  6  0  0  0  0  0  0  0  0  1 V2000
   48.2317   10.9651   -0.1091 C   0  0  0  0  0  0  0  0  0  0  0  0
   47.1552   11.3044    0.7280 C   0  0  0  0  0  0  0  0  0  0  0  0
   46.8472   10.4245    1.7814 C   0  0  0  0  0  0  0  0  0  0  0  0
   47.5853    9.2446    1.9907 C   0  0  0  0  0  0  0  0  0  0  0  0
   48.6462    8.9757    1.1098 C   0  0  0  0  0  0  0  0  0  0  0  0
   48.9572    9.8214    0.0810 C   0  0  0  0  0  0  0  0  0  0  0  0
  1  2  1  0  0  0  0
  2  3  1  0  0  0  0
  3  4  1  0  0  0  0
  4  5  1  0  0  0  0
  5  6  1  0  0  0  0
  6  1  1  0  0  0  0
M  END
> <CLUSTER_SIZE>
181

$$$$
RING
  ATLAS   

  6  6  0  0  0  0  0  0  0  0  1 V2000
   45.2298    9.7811   -0.0203 C   0  0  0  0  0  0  0  0  0  0  0  0
   45.5284   10.7811   -1.1531 C   0  0  0  0  0  0  0  0  0  0  0  0
   44.3211   10.9540   -2.0831 C   0  0  0  0  0  0  0  0  0  0  0  0
   43.8439    9.5810   -2.5722 C   0  0  0  0  0  0  0  0  0  0  0  0
   43.4354    8.7028   -1.4131 C   0  0  0  0  0  0  0  0  0  0  0  0
   44.1449    8.8209   -0.2707 C   0  0  0  0  0  0  0  0  0  0  0  0
  1  2  1  0  0  0  0
  2  3  1  0  0  0  0
  3  4  1  0  0  0  0
  4  5  1  0  0  0  0
  5  6  1  0  0  0  0
  6  1  1  0  0  0  0
M  END
> <CLUSTER_SIZE>
113

$$$$
RING
  ATLAS   

  5  5  0  0  0  0  0  0  0  0  1 V2000
   42.8125    8.0667   -2.0571 C   0  0  0  0  0  0  0  0  0  0  0  0
   41.8765    8.4340   -2.9768 C   0  0  0  0  0  0  0  0  0  0  0  0
   42.0382    9.8272   -3.2118 C   0  0  0  0  0  0  0  0  0  0  0  0
   43.0379   10.3001   -2.4552 C   0  0  0  0  0  0  0  0  0  0  0  0
   43.4896    9.2227   -1.7629 C   0  0  0  0  0  0  0  0  0  0  0  0
  1  2  1  0  0  0  0
  2  3  1  0  0  0  0
  3  4  1  0  0  0  0
  4  5  1  0  0  0  0
  5  1  1  0  0  0  0
M  END
> <CLUSTER_SIZE>
86

$$$$
RING
  ATLAS   

  5  5  0  0  0  0  0  0  0  0  1 V2000
   47.5246   15.9793    3.9566 C   0  0  0  0  0  0  0  0  0  0  0  0
   47.4122   17.0745    4.7701 C   0  0  0  0  0  0  0  0  0  0  0  0
   46.3007   16.9571    5.5770 C   0  0  0  0  0  0  0  0  0  0  0  0
   45.7469   15.7856    5.2443 C   0  0  0  0  0  0  0  0  0  0  0  0
   46.4718   15.1632    4.2636 C   0  0  0  0  0  0  0  0  0  0  0  0
  1  2  1  0  0  0  0
  2  3  1  0  0  0  0
  3  4  1  0  0  0  0
  4  5  1  0  0  0  0
  5  1  1  0  0  0  0
M  END
> <CLUSTER_SIZE>
78

$$$$
RING
  ATLAS   

  5  5  0  0  0  0  0  0  0  0  1 V2000
   44.4260   16.3464   -1.4661 C   0  0  0  0  0  0  0  0  0  0  0  0
   43.8559   15.4800   -0.5818 C   0  0  0  0  0  0  0  0  0  0  0  0
   43.8988   16.0911    0.7015 C   0  0  0  0  0  0  0  0  0  0  0  0
   44.4698   17.2990    0.6063 C   0  0  0  0  0  0  0  0  0  0  0  0
   44.7990   17.4268   -0.7062 C   0  0  0  0  0  0  0  0  0  0  0  0
  1  2  1  0  0  0  0
  2  3  1  0  0  0  0
  3  4  1  0  0  0  0
  4  5  1  0  0  0  0
  5  1  1  0  0  0  0
M  END
> <CLUSTER_SIZE>
52

$$$$
